                                   MODFLOW 6
                U.S. GEOLOGICAL SURVEY MODULAR HYDROLOGIC MODEL
                          GROUNDWATER FLOW MODEL (GWF)
                   VERSION 6.3.0 release candidate 03/08/2022
                               ***DEVELOP MODE***

   MODFLOW 6 compiled Mar 08 2022 20:13:10 with Intel(R) Fortran Intel(R) 64
   Compiler Classic for applications running on Intel(R) 64, Version 2021.5.0
                             Build 20211109_000000

This software is preliminary or provisional and is subject to 
revision. It is being provided to meet the need for timely best 
science. The software has not received final approval by the U.S. 
Geological Survey (USGS). No warranty, expressed or implied, is made 
by the USGS or the U.S. Government as to the functionality of the 
software and related material nor shall the fact of release 
constitute any such warranty. The software is provided on the 
condition that neither the USGS nor the U.S. Government shall be held 
liable for any damages resulting from the authorized or unauthorized 
use of the software.


As a work of the United States Government, this USGS product is 
in the public domain within the United States. You can copy, 
modify, distribute, and perform the work, even for commercial 
purposes, all without asking permission. Additionally, USGS 
waives copyright and related rights in the work worldwide 
through CC0 1.0 Universal Public Domain Dedication 
(https://creativecommons.org/publicdomain/zero/1.0/).

The following GNU Lesser General Public License (LGPL) libraries
are used in this USGS product:

    SPARSKIT version 2.0
      ilut, luson, and qsplit 
      (https://www-users.cse.umn.edu/~saad/software/SPARSKIT/)

    RCM - Reverse Cuthill McKee Ordering
      (https://people.math.sc.edu/Burkardt/f_src/rcm/rcm.html)

    BLAS - Basic Linear Algebra Subprograms Level 1
      (https://people.math.sc.edu/Burkardt/f_src/blas1_d/blas1_d.html)

    SPARSEKIT - Sparse Matrix Utility Package
      amux, dperm, dvperm, rperm, and cperm
      (https://people.sc.fsu.edu/~jburkardt/f77_src/sparsekit/sparsekit.html)

The following BSD-3 License libraries are used in this USGS product:

    Modern Fortran DAG Library
      Copyright (c) 2018, Jacob Williams
      All rights reserved.
      (https://github.com/jacobwilliams/daglib)

MODFLOW 6 compiler options: -Ilinux/obj_temp -O2 -no-heap-arrays -fpe0
-traceback -fpp -module linux/mod_temp/ -c -o linux/obj_temp/compilerversion.o

System command used to initiate simulation:
/home/hydro/PythonProjects/mfbuilder/bin/mf6

MODFLOW was compiled using uniform precision.

Real Variables
  KIND: 8
  TINY (smallest non-zero value):    2.225074-308
  HUGE (largest value):    1.797693+308
  PRECISION: 15
  BIT SIZE: 64

Integer Variables
  KIND: 4
  HUGE (largest value): 2147483647
  BIT SIZE: 32

Long Integer Variables
  KIND: 8
  HUGE (largest value): 9223372036854775807
  BIT SIZE: 64

Logical Variables
  KIND: 4
  BIT SIZE: 32
 

 OPENED hill.dis
 FILE TYPE:DIS6                   UNIT 1005   STATUS:OLD                 
 FORMAT:FORMATTED              ACCESS:SEQUENTIAL          
 ACTION:READ                


 OPENED hill.ic
 FILE TYPE:IC6                    UNIT 1006   STATUS:OLD                 
 FORMAT:FORMATTED              ACCESS:SEQUENTIAL          
 ACTION:READ                


 OPENED hill.npf
 FILE TYPE:NPF6                   UNIT 1007   STATUS:OLD                 
 FORMAT:FORMATTED              ACCESS:SEQUENTIAL          
 ACTION:READ                


 OPENED hill.rch
 FILE TYPE:RCH6                   UNIT 1008   STATUS:OLD                 
 FORMAT:FORMATTED              ACCESS:SEQUENTIAL          
 ACTION:READ                


 OPENED hill.riv
 FILE TYPE:RIV6                   UNIT 1009   STATUS:OLD                 
 FORMAT:FORMATTED              ACCESS:SEQUENTIAL          
 ACTION:READ                


 OPENED hill.ghb
 FILE TYPE:GHB6                   UNIT 1010   STATUS:OLD                 
 FORMAT:FORMATTED              ACCESS:SEQUENTIAL          
 ACTION:READ                


 OPENED hill.oc
 FILE TYPE:OC6                    UNIT 1011   STATUS:OLD                 
 FORMAT:FORMATTED              ACCESS:SEQUENTIAL          
 ACTION:READ                


 DIS -- STRUCTURED GRID DISCRETIZATION PACKAGE, VERSION 2 : 3/27/2014 - INPUT READ FROM UNIT 1005


 # File generated by Flopy version 3.4.3 on 10/17/2023 at 03:50:46.
 PROCESSING DISCRETIZATION OPTIONS
    XORIGIN SPECIFIED AS     0.00000000000000    
    YORIGIN SPECIFIED AS     0.00000000000000    
    ANGROT SPECIFIED AS     0.00000000000000    
 END OF DISCRETIZATION OPTIONS
 MODEL LENGTH UNIT IS UNDEFINED
 PROCESSING DISCRETIZATION DIMENSIONS
    NLAY =       3
    NROW =      18
    NCOL =      18
 END OF DISCRETIZATION DIMENSIONS
 PROCESSING GRIDDATA

                     DELR =   1000.000    

                     DELC =   1000.000    
 END PROCESSING GRIDDATA

 NPF -- NODE PROPERTY FLOW PACKAGE, VERSION 1, 3/30/2015 INPUT READ FROM UNIT 1007


 # File generated by Flopy version 3.4.3 on 10/17/2023 at 03:50:46.
 PROCESSING NPF OPTIONS
    CELL-BY-CELL FLOW INFORMATION WILL BE SAVED TO BINARY FILE WHENEVER ICBCFL IS NOT ZERO.
 END OF NPF OPTIONS

 RIV   -- RIV PACKAGE, VERSION 8, 2/22/2014 INPUT READ FROM UNIT 1009
 # File generated by Flopy version 3.4.3 on 10/17/2023 at 03:50:46.

 PROCESSING RIV OPTIONS
    RIV BOUNDARIES HAVE NAMES IN LAST COLUMN.
    FLOWS WILL BE SAVED TO BUDGET FILE SPECIFIED IN OUTPUT CONTROL
 END OF RIV OPTIONS

 PROCESSING RIV DIMENSIONS
    MAXBOUND =      18
 END OF RIV DIMENSIONS

 GHB   -- GHB PACKAGE, VERSION 8, 2/22/2014 INPUT READ FROM UNIT 1010
 # File generated by Flopy version 3.4.3 on 10/17/2023 at 03:50:46.

 PROCESSING GHB OPTIONS
 END OF GHB OPTIONS

 PROCESSING GHB DIMENSIONS
    MAXBOUND =      36
 END OF GHB DIMENSIONS

 RCH   -- RCH PACKAGE, VERSION 8, 2/22/2014 INPUT READ FROM UNIT 1008
 # File generated by Flopy version 3.4.3 on 10/17/2023 at 03:50:46.

 PROCESSING RCH OPTIONS
 END OF RCH OPTIONS

 PROCESSING RCH DIMENSIONS
    MAXBOUND =     360
 END OF RCH DIMENSIONS

 IC -- INITIAL CONDITIONS PACKAGE, VERSION 8, 3/28/2015 INPUT READ FROM UNIT 1006
 # File generated by Flopy version 3.4.3 on 10/17/2023 at 03:50:46.
 PROCESSING GRIDDATA

     INITIAL HEAD =   200.0000    
 END PROCESSING GRIDDATA
 PROCESSING GRIDDATA

                ICELLTYPE = 1 FOR LAYER 1

                ICELLTYPE = 0 FOR LAYER 2

                ICELLTYPE = 0 FOR LAYER 3

                        K =  0.3000000E-03 FOR LAYER 1

                        K =  0.1000000E-06 FOR LAYER 2
 K33 not provided.  Assuming K33 = K.
 K22 not provided.  Assuming K22 = K.
 END PROCESSING GRIDDATA
    BINARY GRID INFORMATION WILL BE WRITTEN TO:
      UNIT NUMBER: 1013
      FILE NAME: /home/hydro/PythonProjects/mfbuilder/tests/hill_ex1/hill.dis.grb

 OPENED /home/hydro/PythonProjects/mfbuilder/tests/hill_ex1/hill.dis.grb
 FILE TYPE:DATA(BINARY)   UNIT 1013   STATUS:REPLACE             
 FORMAT:UNFORMATTED            ACCESS:STREAM              
 ACTION:READWRITE           

      THE LAST TIME STEP WILL BE PRINTED
      THE LAST TIME STEP WILL BE PRINTED
 # File generated by Flopy version 3.4.3 on 10/17/2023 at 03:50:46.

 PROCESSING OC OPTIONS

    BUDGET INFORMATION WILL BE WRITTEN TO:
      UNIT NUMBER: 1014
      FILE NAME: hill.cbb

 OPENED hill.cbb
 FILE TYPE:DATA(BINARY)   UNIT 1014   STATUS:REPLACE             
 FORMAT:UNFORMATTED            ACCESS:STREAM              
 ACTION:READWRITE           

    HEAD INFORMATION WILL BE WRITTEN TO:
      UNIT NUMBER: 1015
      FILE NAME: hill.hds

 OPENED hill.hds
 FILE TYPE:DATA(BINARY)   UNIT 1015   STATUS:REPLACE             
 FORMAT:UNFORMATTED            ACCESS:STREAM              
 ACTION:READWRITE           

 END OF OC OPTIONS

start timestep kper="1" kstp="1" mode="normal"


 BEGIN READING OUTPUT CONTROL FOR STRESS PERIOD 1
      ALL TIME STEPS WILL BE SAVED
      ALL TIME STEPS WILL BE SAVED
      ALL TIME STEPS WILL BE PRINTED
      ALL TIME STEPS WILL BE PRINTED

 END READING OUTPUT CONTROL FOR STRESS PERIOD 1
 UBDSV1 SAVING     FLOW-JA-FACE ON UNIT   1014 AT TIME STEP      1, STRESS PERIOD      1
 UBDSV06 SAVING              RIV IN MODEL HILL             PACKAGE HILL            CONNECTED TO MODEL HILL             PACKAGE RIV_0            ON UNIT   1014 AT TIME STEP      1, STRESS PERIOD      1
1
  HEAD IN LAYER   1 AT END OF TIME STEP   1 IN STRESS PERIOD    1
  ---------------------------------------------------------------------------

                1               2               3               4               5               6               7               8               9              10
               11              12              13              14              15              16              17              18
 ................................................................................................................................................................
   1      100.002         100.002         100.003         100.003         100.003         100.003         100.003         100.003         100.003         100.003    
          100.003         100.003         100.003         100.003         100.003         100.003         100.003         100.003    
   2      113.594         113.598         113.623         113.631         113.653         113.662         113.685         113.699         113.728         113.752    
          113.790         113.826         113.875         113.923         113.979         114.029         114.075         114.098    
   3      125.772         125.724         125.635         125.532         125.420         125.308         125.201         125.101         125.014         124.938    
          124.880         124.835         124.808         124.794         124.796         124.805         124.819         124.827    
   4      136.791         136.688         136.492         136.264         136.005         135.745         135.483         135.236         135.002         134.791    
          134.601         134.439         134.301         134.192         134.107         134.048         134.011         133.993    
   5      146.736         146.588         146.306         145.970         145.584         145.189         144.786         144.399         144.025         143.681    
          143.363         143.083         142.835         142.629         142.459         142.332         142.244         142.202    
   6      155.656         155.472         155.125         154.703         154.212         153.705         153.182         152.675         152.182         151.722    
          151.292         150.907         150.563         150.270         150.026         149.840         149.710         149.646    
   7      163.588         163.377         162.979         162.488         161.916         161.320         160.701         160.097         159.505         158.950    
          158.428         157.956         157.533         157.170         156.865         156.631         156.467         156.386    
   8      170.560         170.329         169.892         169.350         168.717         168.053         167.362         166.683         166.016         165.386    
          164.793         164.255         163.769         163.351         163.000         162.729         162.540         162.446    
   9      176.602         176.358         175.895         175.321         174.648         173.940         173.200         172.471         171.752         171.072    
          170.428         169.843         169.313         168.857         168.474         168.178         167.971         167.868    
  10      181.117         180.874         180.410         179.831         179.148         178.425         177.666         176.913         176.168         175.460    
          174.790         174.178         173.625         173.148         172.747         172.437         172.222         172.114    
  11      184.098         183.866         183.427         182.865         182.198         181.482         180.728         179.973         179.225         178.510    
          177.831         177.211         176.650         176.165         175.759         175.445         175.228         175.120    
  12      186.747         186.525         186.109         185.567         184.920         184.219         183.477         182.730         181.987         181.274    
          180.597         179.976         179.415         178.930         178.524         178.212         177.996         177.888    
  13      189.034         188.822         188.421         187.895         187.266         186.579         185.850         185.113         184.378         183.671    
          182.998         182.380         181.822         181.340         180.937         180.627         180.413         180.306    
  14      190.951         190.744         190.353         189.840         189.224         188.549         187.831         187.103         186.376         185.675    
          185.008         184.394         183.840         183.360         182.960         182.652         182.441         182.335    
  15      192.490         192.287         191.903         191.399         190.792         190.126         189.417         188.696         187.976         187.280    
          186.618         186.008         185.457         184.980         184.583         184.277         184.067         183.962    
  16      193.648         193.447         193.068         192.569         191.969         191.310         190.607         189.892         189.176         188.484    
          187.826         187.219         186.670         186.196         185.801         185.497         185.288         185.183    
  17      194.421         194.222         193.846         193.351         192.754         192.099         191.400         190.689         189.976         189.288    
          188.631         188.026         187.480         187.007         186.613         186.310         186.102         185.998    
  18      194.809         194.611         194.236         193.742         193.148         192.495         191.798         191.088         190.377         189.690    
          189.035         188.431         187.885         187.413         187.020         186.717         186.510         186.406    
1
  HEAD IN LAYER   2 AT END OF TIME STEP   1 IN STRESS PERIOD    1
  ---------------------------------------------------------------------------

                1               2               3               4               5               6               7               8               9              10
               11              12              13              14              15              16              17              18
 ................................................................................................................................................................
   1      101.165         101.279         101.945         102.147         102.649         102.851         103.258         103.449         103.792         103.972    
          104.271         104.441         104.708         104.868         105.105         105.245         105.432         105.492    
   2      113.651         113.685         113.843         113.915         114.077         114.162         114.318         114.410         114.562         114.663    
          114.816         114.927         115.084         115.203         115.357         115.469         115.593         115.642    
   3      125.677         125.625         125.513         125.416         125.308         125.210         125.121         125.041         124.979         124.926    
          124.895         124.875         124.878         124.889         124.920         124.951         124.987         125.004    
   4      136.674         136.557         136.297         136.056         135.759         135.491         135.206         134.956         134.708         134.497    
          134.300         134.139         133.998         133.892         133.807         133.752         133.714         133.698    
   5      146.615         146.448         146.094         145.739         145.301         144.892         144.451         144.053         143.652         143.299    
          142.960         142.672         142.409         142.197         142.014         141.883         141.786         141.742    
   6      155.534         155.330         154.906         154.462         153.917         153.392         152.828         152.306         151.780         151.308    
          150.852         150.457         150.092         149.790         149.529         149.335         149.192         149.125    
   7      163.465         163.232         162.754         162.242         161.612         160.996         160.334         159.713         159.087         158.517    
          157.967         157.484         157.036         156.663         156.339         156.096         155.918         155.833    
   8      170.431         170.176         169.653         169.087         168.392         167.707         166.968         166.272         165.567         164.922    
          164.298         163.747         163.236         162.807         162.435         162.155         161.949         161.852    
   9      176.429         176.158         175.591         174.991         174.246         173.515         172.722         171.973         171.212         170.515    
          169.838         169.239         168.682         168.214         167.808         167.502         167.278         167.172    
  10      180.951         180.681         180.120         179.516         178.766         178.021         177.213         176.442         175.659         174.936    
          174.235         173.611         173.032         172.544         172.122         171.804         171.573         171.463    
  11      184.022         183.769         183.272         182.692         181.982         181.250         180.462         179.695         178.920         178.195    
          177.495         176.865         176.286         175.794         175.373         175.054         174.826         174.715    
  12      186.683         186.444         185.980         185.424         184.743         184.031         183.263         182.506         181.743         181.022    
          180.329         179.701         179.127         178.636         178.219         177.903         177.678         177.570    
  13      188.972         188.743         188.298         187.760         187.099         186.402         185.650         184.905         184.152         183.438    
          182.751         182.128         181.558         181.071         180.659         180.345         180.124         180.017    
  14      190.889         190.666         190.232         189.707         189.060         188.376         187.635         186.900         186.155         185.448    
          184.767         184.149         183.583         183.100         182.691         182.381         182.162         182.056    
  15      192.428         192.210         191.783         191.266         190.629         189.954         189.222         188.494         187.757         187.055    
          186.379         185.765         185.203         184.723         184.317         184.009         183.792         183.687    
  16      193.586         193.370         192.948         192.437         191.806         191.138         190.412         189.690         188.957         188.260    
          187.588         186.977         186.418         185.940         185.536         185.229         185.014         184.909    
  17      194.360         194.145         193.726         193.219         192.592         191.928         191.206         190.488         189.758         189.064    
          188.394         187.785         187.228         186.751         186.349         186.043         185.829         185.724    
  18      194.748         194.534         194.116         193.611         192.986         192.324         191.604         190.887         190.159         189.466    
          188.797         188.189         187.633         187.158         186.756         186.451         186.236         186.132    
1
  HEAD IN LAYER   3 AT END OF TIME STEP   1 IN STRESS PERIOD    1
  ---------------------------------------------------------------------------

                1               2               3               4               5               6               7               8               9              10
               11              12              13              14              15              16              17              18
 ................................................................................................................................................................
   1      102.339         102.569         103.895         104.300         105.301         105.706         106.517         106.900         107.584         107.944    
          108.540         108.880         109.412         109.732         110.206         110.485         110.858         110.978    
   2      113.708         113.774         114.064         114.201         114.502         114.663         114.951         115.122         115.397         115.576    
          115.843         116.030         116.292         116.484         116.735         116.910         117.109         117.186    
   3      125.580         125.526         125.389         125.298         125.195         125.113         125.041         124.982         124.943         124.914    
          124.911         124.916         124.948         124.984         125.043         125.096         125.156         125.182    
   4      136.555         136.424         136.101         135.847         135.512         135.237         134.929         134.675         134.414         134.203    
          133.998         133.840         133.696         133.593         133.508         133.456         133.417         133.403    
   5      146.493         146.308         145.880         145.506         145.019         144.593         144.117         143.706         143.278         142.916    
          142.557         142.262         141.982         141.765         141.570         141.434         141.328         141.282    
   6      155.411         155.186         154.686         154.221         153.622         153.079         152.474         151.937         151.379         150.893    
          150.413         150.006         149.620         149.310         149.031         148.831         148.674         148.605    
   7      163.341         163.085         162.528         161.994         161.307         160.672         159.966         159.329         158.668         158.084    
          157.506         157.011         156.540         156.156         155.813         155.562         155.369         155.281    
   8      170.301         170.021         169.413         168.823         168.066         167.360         166.575         165.860         165.118         164.458    
          163.804         163.239         162.703         162.262         161.869         161.580         161.359         161.258    
   9      176.254         175.956         175.287         174.659         173.843         173.089         172.243         171.475         170.672         169.959    
          169.248         168.635         168.051         167.571         167.142         166.827         166.585         166.476    
  10      180.782         180.486         179.829         179.200         178.383         177.617         176.759         175.971         175.149         174.412    
          173.680         173.043         172.439         171.941         171.498         171.172         170.924         170.811    
  11      183.945         183.672         183.115         182.518         181.764         181.018         180.197         179.418         178.616         177.880    
          177.158         176.520         175.923         175.423         174.987         174.662         174.423         174.311    
  12      186.618         186.362         185.851         185.282         184.566         183.842         183.048         182.283         181.499         180.771    
          180.060         179.426         178.838         178.342         177.914         177.593         177.361         177.251    
  13      188.909         188.664         188.175         187.624         186.932         186.225         185.449         184.697         183.925         183.205    
          182.504         181.876         181.294         180.803         180.380         180.064         179.836         179.728    
  14      190.827         190.588         190.111         189.573         188.896         188.202         187.439         186.696         185.934         185.221    
          184.527         183.904         183.327         182.840         182.422         182.109         181.884         181.778    
  15      192.366         192.131         191.662         191.133         190.466         189.781         189.027         188.292         187.537         186.830    
          186.141         185.522         184.949         184.466         184.051         183.740         183.517         183.412    
  16      193.524         193.292         192.827         192.304         191.644         190.966         190.218         189.489         188.739         188.036    
          187.350         186.735         186.165         185.684         185.271         184.962         184.740         184.636    
  17      194.298         194.067         193.605         193.086         192.429         191.756         191.012         190.286         189.540         188.840    
          188.157         187.543         186.975         186.496         186.084         185.776         185.555         185.451    
  18      194.686         194.457         193.996         193.479         192.824         192.152         191.410         190.686         189.941         189.242    
          188.560         187.948         187.381         186.902         186.491         186.184         185.963         185.859    

 HEAD WILL BE SAVED ON UNIT 1015 AT END OF TIME STEP    1, STRESS PERIOD    1


  VOLUME BUDGET FOR ENTIRE MODEL AT END OF TIME STEP    1, STRESS PERIOD   1
  ---------------------------------------------------------------------------------------------------

     CUMULATIVE VOLUME      L**3       RATES FOR THIS TIME STEP      L**3/T          PACKAGE NAME    
     ------------------                 ------------------------                     ----------------

           IN:                                      IN:
           ---                                      ---
                 RIV =           0.0000                   RIV =           0.0000     RIV_0                            
                 GHB =       5.7564E-04                   GHB =       5.7564E-04     GHB_0                            
                 RCH =           5.4000                   RCH =           5.4000     RCH_0                            

            TOTAL IN =           5.4006              TOTAL IN =           5.4006

          OUT:                                     OUT:
          ----                                     ----
                 RIV =           5.4006                   RIV =           5.4006     RIV_0                            
                 GHB =           0.0000                   GHB =           0.0000     GHB_0                            
                 RCH =           0.0000                   RCH =           0.0000     RCH_0                            

           TOTAL OUT =           5.4006             TOTAL OUT =           5.4006

            IN - OUT =      -1.9495E-07              IN - OUT =      -1.9495E-07

 PERCENT DISCREPANCY =          -0.00     PERCENT DISCREPANCY =          -0.00




         TIME SUMMARY AT END OF TIME STEP    1 IN STRESS PERIOD    1
                    SECONDS     MINUTES      HOURS       DAYS        YEARS
                    -----------------------------------------------------------
   TIME STEP LENGTH  1.0000     1.66667E-02 2.77778E-04 1.15741E-05 3.16881E-08
 STRESS PERIOD TIME  1.0000     1.66667E-02 2.77778E-04 1.15741E-05 3.16881E-08
         TOTAL TIME  1.0000     1.66667E-02 2.77778E-04 1.15741E-05 3.16881E-08


end timestep

