                                   MODFLOW 6
                U.S. GEOLOGICAL SURVEY MODULAR HYDROLOGIC MODEL
                          GROUNDWATER FLOW MODEL (GWF)
                   VERSION 6.3.0 release candidate 03/08/2022
                               ***DEVELOP MODE***

   MODFLOW 6 compiled Mar 08 2022 20:13:10 with Intel(R) Fortran Intel(R) 64
   Compiler Classic for applications running on Intel(R) 64, Version 2021.5.0
                             Build 20211109_000000

This software is preliminary or provisional and is subject to 
revision. It is being provided to meet the need for timely best 
science. The software has not received final approval by the U.S. 
Geological Survey (USGS). No warranty, expressed or implied, is made 
by the USGS or the U.S. Government as to the functionality of the 
software and related material nor shall the fact of release 
constitute any such warranty. The software is provided on the 
condition that neither the USGS nor the U.S. Government shall be held 
liable for any damages resulting from the authorized or unauthorized 
use of the software.


As a work of the United States Government, this USGS product is 
in the public domain within the United States. You can copy, 
modify, distribute, and perform the work, even for commercial 
purposes, all without asking permission. Additionally, USGS 
waives copyright and related rights in the work worldwide 
through CC0 1.0 Universal Public Domain Dedication 
(https://creativecommons.org/publicdomain/zero/1.0/).

The following GNU Lesser General Public License (LGPL) libraries
are used in this USGS product:

    SPARSKIT version 2.0
      ilut, luson, and qsplit 
      (https://www-users.cse.umn.edu/~saad/software/SPARSKIT/)

    RCM - Reverse Cuthill McKee Ordering
      (https://people.math.sc.edu/Burkardt/f_src/rcm/rcm.html)

    BLAS - Basic Linear Algebra Subprograms Level 1
      (https://people.math.sc.edu/Burkardt/f_src/blas1_d/blas1_d.html)

    SPARSEKIT - Sparse Matrix Utility Package
      amux, dperm, dvperm, rperm, and cperm
      (https://people.sc.fsu.edu/~jburkardt/f77_src/sparsekit/sparsekit.html)

The following BSD-3 License libraries are used in this USGS product:

    Modern Fortran DAG Library
      Copyright (c) 2018, Jacob Williams
      All rights reserved.
      (https://github.com/jacobwilliams/daglib)

MODFLOW 6 compiler options: -Ilinux/obj_temp -O2 -no-heap-arrays -fpe0
-traceback -fpp -module linux/mod_temp/ -c -o linux/obj_temp/compilerversion.o

System command used to initiate simulation:
/home/hydro/PythonProjects/mfbuilder/bin/mf6

MODFLOW was compiled using uniform precision.

Real Variables
  KIND: 8
  TINY (smallest non-zero value):    2.225074-308
  HUGE (largest value):    1.797693+308
  PRECISION: 15
  BIT SIZE: 64

Integer Variables
  KIND: 4
  HUGE (largest value): 2147483647
  BIT SIZE: 32

Long Integer Variables
  KIND: 8
  HUGE (largest value): 9223372036854775807
  BIT SIZE: 64

Logical Variables
  KIND: 4
  BIT SIZE: 32
 

 OPENED hill.dis
 FILE TYPE:DIS6                   UNIT 1005   STATUS:OLD                 
 FORMAT:FORMATTED              ACCESS:SEQUENTIAL          
 ACTION:READ                


 OPENED hill.ic
 FILE TYPE:IC6                    UNIT 1006   STATUS:OLD                 
 FORMAT:FORMATTED              ACCESS:SEQUENTIAL          
 ACTION:READ                


 OPENED hill.npf
 FILE TYPE:NPF6                   UNIT 1007   STATUS:OLD                 
 FORMAT:FORMATTED              ACCESS:SEQUENTIAL          
 ACTION:READ                


 OPENED hill.rch
 FILE TYPE:RCH6                   UNIT 1008   STATUS:OLD                 
 FORMAT:FORMATTED              ACCESS:SEQUENTIAL          
 ACTION:READ                


 OPENED hill.riv
 FILE TYPE:RIV6                   UNIT 1009   STATUS:OLD                 
 FORMAT:FORMATTED              ACCESS:SEQUENTIAL          
 ACTION:READ                


 OPENED hill.ghb
 FILE TYPE:GHB6                   UNIT 1010   STATUS:OLD                 
 FORMAT:FORMATTED              ACCESS:SEQUENTIAL          
 ACTION:READ                


 OPENED hill.oc
 FILE TYPE:OC6                    UNIT 1011   STATUS:OLD                 
 FORMAT:FORMATTED              ACCESS:SEQUENTIAL          
 ACTION:READ                


 DIS -- STRUCTURED GRID DISCRETIZATION PACKAGE, VERSION 2 : 3/27/2014 - INPUT READ FROM UNIT 1005


 # File generated by Flopy version 3.4.3 on 10/16/2023 at 14:30:01.
 PROCESSING DISCRETIZATION OPTIONS
    XORIGIN SPECIFIED AS     0.00000000000000    
    YORIGIN SPECIFIED AS     0.00000000000000    
    ANGROT SPECIFIED AS     0.00000000000000    
 END OF DISCRETIZATION OPTIONS
 MODEL LENGTH UNIT IS UNDEFINED
 PROCESSING DISCRETIZATION DIMENSIONS
    NLAY =       3
    NROW =      18
    NCOL =      18
 END OF DISCRETIZATION DIMENSIONS
 PROCESSING GRIDDATA

                     DELR =   1000.000    

                     DELC =   1000.000    

 TOP ELEVATION OF LAYER 1 =   100.0000    

   MODEL LAYER BOTTOM EL. =   50.00000     FOR LAYER 1

   MODEL LAYER BOTTOM EL. =   40.00000     FOR LAYER 2

   MODEL LAYER BOTTOM EL. =  -10.00000     FOR LAYER 3
 END PROCESSING GRIDDATA

 NPF -- NODE PROPERTY FLOW PACKAGE, VERSION 1, 3/30/2015 INPUT READ FROM UNIT 1007


 # File generated by Flopy version 3.4.3 on 10/16/2023 at 14:30:01.
 PROCESSING NPF OPTIONS
    CELL-BY-CELL FLOW INFORMATION WILL BE SAVED TO BINARY FILE WHENEVER ICBCFL IS NOT ZERO.
 END OF NPF OPTIONS

 RIV   -- RIV PACKAGE, VERSION 8, 2/22/2014 INPUT READ FROM UNIT 1009
 # File generated by Flopy version 3.4.3 on 10/16/2023 at 14:30:01.

 PROCESSING RIV OPTIONS
    RIV BOUNDARIES HAVE NAMES IN LAST COLUMN.
    FLOWS WILL BE SAVED TO BUDGET FILE SPECIFIED IN OUTPUT CONTROL
 END OF RIV OPTIONS

 PROCESSING RIV DIMENSIONS
    MAXBOUND =      18
 END OF RIV DIMENSIONS

 GHB   -- GHB PACKAGE, VERSION 8, 2/22/2014 INPUT READ FROM UNIT 1010
 # File generated by Flopy version 3.4.3 on 10/16/2023 at 14:30:01.

 PROCESSING GHB OPTIONS
 END OF GHB OPTIONS

 PROCESSING GHB DIMENSIONS
    MAXBOUND =      36
 END OF GHB DIMENSIONS

 RCH   -- RCH PACKAGE, VERSION 8, 2/22/2014 INPUT READ FROM UNIT 1008
 # File generated by Flopy version 3.4.3 on 10/16/2023 at 14:30:01.

 PROCESSING RCH OPTIONS
 END OF RCH OPTIONS

 PROCESSING RCH DIMENSIONS
    MAXBOUND =     360
 END OF RCH DIMENSIONS

 IC -- INITIAL CONDITIONS PACKAGE, VERSION 8, 3/28/2015 INPUT READ FROM UNIT 1006
 # File generated by Flopy version 3.4.3 on 10/16/2023 at 14:30:01.
 PROCESSING GRIDDATA

     INITIAL HEAD =   200.0000    
 END PROCESSING GRIDDATA
 PROCESSING GRIDDATA

                ICELLTYPE = 1 FOR LAYER 1

                ICELLTYPE = 0 FOR LAYER 2

                ICELLTYPE = 0 FOR LAYER 3

                        K =  0.3000000E-03 FOR LAYER 1

                        K =  0.1000000E-06 FOR LAYER 2
 K33 not provided.  Assuming K33 = K.
 K22 not provided.  Assuming K22 = K.
 END PROCESSING GRIDDATA
    BINARY GRID INFORMATION WILL BE WRITTEN TO:
      UNIT NUMBER: 1013
      FILE NAME: /home/hydro/PythonProjects/mfbuilder/tests/hill_ex1/hill.dis.grb

 OPENED /home/hydro/PythonProjects/mfbuilder/tests/hill_ex1/hill.dis.grb
 FILE TYPE:DATA(BINARY)   UNIT 1013   STATUS:REPLACE             
 FORMAT:UNFORMATTED            ACCESS:STREAM              
 ACTION:READWRITE           

      THE LAST TIME STEP WILL BE PRINTED
      THE LAST TIME STEP WILL BE PRINTED
 # File generated by Flopy version 3.4.3 on 10/16/2023 at 14:30:01.

 PROCESSING OC OPTIONS

    BUDGET INFORMATION WILL BE WRITTEN TO:
      UNIT NUMBER: 1014
      FILE NAME: hill.cbb

 OPENED hill.cbb
 FILE TYPE:DATA(BINARY)   UNIT 1014   STATUS:REPLACE             
 FORMAT:UNFORMATTED            ACCESS:STREAM              
 ACTION:READWRITE           

    HEAD INFORMATION WILL BE WRITTEN TO:
      UNIT NUMBER: 1015
      FILE NAME: hill.hds

 OPENED hill.hds
 FILE TYPE:DATA(BINARY)   UNIT 1015   STATUS:REPLACE             
 FORMAT:UNFORMATTED            ACCESS:STREAM              
 ACTION:READWRITE           

 END OF OC OPTIONS

start timestep kper="1" kstp="1" mode="normal"


 BEGIN READING OUTPUT CONTROL FOR STRESS PERIOD 1
      ALL TIME STEPS WILL BE SAVED
      ALL TIME STEPS WILL BE SAVED
      ALL TIME STEPS WILL BE PRINTED
      ALL TIME STEPS WILL BE PRINTED

 END READING OUTPUT CONTROL FOR STRESS PERIOD 1
 UBDSV1 SAVING     FLOW-JA-FACE ON UNIT   1014 AT TIME STEP      1, STRESS PERIOD      1
 UBDSV06 SAVING              RIV IN MODEL HILL             PACKAGE HILL            CONNECTED TO MODEL HILL             PACKAGE RIV_0            ON UNIT   1014 AT TIME STEP      1, STRESS PERIOD      1
1
  HEAD IN LAYER   1 AT END OF TIME STEP   1 IN STRESS PERIOD    1
  ---------------------------------------------------------------------------

                1               2               3               4               5               6               7               8               9              10
               11              12              13              14              15              16              17              18
 ................................................................................................................................................................
   1      100.003         116.708         131.429         144.177         155.317         164.928         173.208         180.252         186.225         190.658    
          193.604         196.173         198.325         200.067         201.420         202.406         203.047         203.362    
   2      100.003         116.708         131.429         144.177         155.317         164.928         173.208         180.252         186.225         190.658    
          193.604         196.173         198.325         200.067         201.420         202.406         203.047         203.362    
   3      100.003         116.708         131.429         144.177         155.317         164.928         173.208         180.252         186.225         190.658    
          193.604         196.172         198.325         200.067         201.420         202.406         203.047         203.362    
   4      100.003         116.708         131.429         144.177         155.317         164.928         173.208         180.252         186.225         190.658    
          193.604         196.172         198.325         200.067         201.420         202.406         203.047         203.362    
   5      100.003         116.708         131.429         144.177         155.317         164.928         173.208         180.252         186.225         190.658    
          193.604         196.172         198.325         200.067         201.420         202.406         203.047         203.362    
   6      100.003         116.708         131.428         144.177         155.317         164.928         173.208         180.252         186.225         190.657    
          193.604         196.172         198.325         200.067         201.420         202.406         203.047         203.362    
   7      100.003         116.708         131.428         144.177         155.317         164.928         173.208         180.252         186.224         190.657    
          193.604         196.172         198.325         200.067         201.420         202.406         203.047         203.362    
   8      100.003         116.708         131.428         144.177         155.317         164.928         173.208         180.252         186.224         190.657    
          193.604         196.172         198.325         200.067         201.420         202.406         203.047         203.362    
   9      100.003         116.708         131.429         144.177         155.317         164.928         173.208         180.252         186.224         190.657    
          193.604         196.172         198.325         200.067         201.420         202.406         203.047         203.362    
  10      100.003         116.708         131.429         144.177         155.317         164.928         173.208         180.252         186.224         190.657    
          193.604         196.172         198.325         200.067         201.420         202.406         203.047         203.362    
  11      100.003         116.708         131.429         144.177         155.317         164.928         173.208         180.252         186.224         190.657    
          193.604         196.172         198.325         200.067         201.420         202.406         203.047         203.362    
  12      100.003         116.708         131.429         144.177         155.317         164.928         173.208         180.252         186.224         190.657    
          193.604         196.172         198.325         200.067         201.420         202.406         203.047         203.362    
  13      100.003         116.708         131.429         144.177         155.317         164.928         173.208         180.252         186.224         190.657    
          193.604         196.172         198.325         200.067         201.420         202.406         203.047         203.362    
  14      100.003         116.708         131.429         144.177         155.317         164.928         173.208         180.252         186.225         190.657    
          193.604         196.172         198.325         200.067         201.420         202.406         203.047         203.362    
  15      100.003         116.708         131.429         144.177         155.317         164.928         173.208         180.252         186.225         190.657    
          193.604         196.172         198.325         200.067         201.420         202.406         203.047         203.362    
  16      100.003         116.708         131.429         144.177         155.317         164.928         173.208         180.252         186.225         190.658    
          193.604         196.172         198.325         200.067         201.420         202.406         203.047         203.362    
  17      100.003         116.708         131.429         144.177         155.317         164.928         173.208         180.252         186.225         190.658    
          193.604         196.172         198.325         200.067         201.420         202.406         203.047         203.362    
  18      100.003         116.708         131.428         144.177         155.317         164.928         173.208         180.252         186.225         190.658    
          193.604         196.172         198.325         200.067         201.420         202.406         203.047         203.362    
1
  HEAD IN LAYER   2 AT END OF TIME STEP   1 IN STRESS PERIOD    1
  ---------------------------------------------------------------------------

                1               2               3               4               5               6               7               8               9              10
               11              12              13              14              15              16              17              18
 ................................................................................................................................................................
   1      101.478         117.197         131.909         144.383         155.465         164.925         173.136         180.055         185.879         190.272    
          193.387         195.984         198.133         199.858         201.195         202.164         202.792         203.097    
   2      101.478         117.196         131.909         144.383         155.465         164.925         173.136         180.055         185.879         190.272    
          193.387         195.984         198.133         199.858         201.195         202.164         202.792         203.097    
   3      101.478         117.196         131.909         144.383         155.465         164.925         173.136         180.055         185.879         190.272    
          193.387         195.984         198.133         199.858         201.195         202.164         202.792         203.097    
   4      101.478         117.196         131.909         144.383         155.465         164.925         173.136         180.055         185.879         190.272    
          193.387         195.984         198.133         199.858         201.195         202.164         202.792         203.097    
   5      101.478         117.196         131.909         144.383         155.465         164.925         173.136         180.055         185.879         190.272    
          193.387         195.984         198.133         199.858         201.195         202.164         202.792         203.097    
   6      101.478         117.196         131.909         144.383         155.465         164.925         173.136         180.055         185.879         190.272    
          193.387         195.984         198.133         199.858         201.195         202.164         202.792         203.097    
   7      101.478         117.196         131.909         144.383         155.465         164.925         173.136         180.055         185.879         190.272    
          193.387         195.984         198.133         199.858         201.195         202.164         202.792         203.097    
   8      101.478         117.196         131.909         144.383         155.465         164.925         173.135         180.055         185.879         190.272    
          193.387         195.984         198.133         199.858         201.195         202.164         202.792         203.097    
   9      101.478         117.196         131.909         144.383         155.465         164.925         173.135         180.055         185.878         190.271    
          193.387         195.984         198.133         199.858         201.195         202.164         202.792         203.097    
  10      101.478         117.196         131.909         144.383         155.465         164.925         173.135         180.055         185.878         190.271    
          193.387         195.984         198.133         199.858         201.195         202.164         202.792         203.097    
  11      101.478         117.196         131.909         144.383         155.465         164.925         173.135         180.055         185.878         190.271    
          193.387         195.984         198.133         199.858         201.195         202.164         202.792         203.097    
  12      101.478         117.196         131.909         144.383         155.465         164.925         173.135         180.055         185.878         190.272    
          193.387         195.984         198.133         199.858         201.195         202.164         202.792         203.097    
  13      101.478         117.196         131.909         144.383         155.465         164.925         173.135         180.055         185.879         190.272    
          193.387         195.984         198.133         199.858         201.195         202.164         202.792         203.097    
  14      101.478         117.196         131.909         144.383         155.465         164.925         173.135         180.055         185.879         190.272    
          193.387         195.984         198.133         199.858         201.195         202.164         202.792         203.097    
  15      101.478         117.196         131.909         144.383         155.465         164.925         173.136         180.055         185.879         190.272    
          193.387         195.984         198.133         199.858         201.195         202.164         202.792         203.097    
  16      101.478         117.196         131.909         144.383         155.465         164.926         173.136         180.055         185.879         190.272    
          193.387         195.984         198.133         199.858         201.195         202.164         202.792         203.097    
  17      101.478         117.196         131.909         144.383         155.465         164.926         173.136         180.056         185.879         190.272    
          193.387         195.984         198.133         199.858         201.195         202.164         202.792         203.097    
  18      101.478         117.196         131.909         144.383         155.465         164.926         173.136         180.056         185.879         190.272    
          193.387         195.984         198.133         199.858         201.195         202.164         202.792         203.097    
1
  HEAD IN LAYER   3 AT END OF TIME STEP   1 IN STRESS PERIOD    1
  ---------------------------------------------------------------------------

                1               2               3               4               5               6               7               8               9              10
               11              12              13              14              15              16              17              18
 ................................................................................................................................................................
   1      102.969         117.691         132.392         144.590         155.613         164.923         173.063         179.858         185.533         189.886    
          193.170         195.795         197.941         199.649         200.970         201.922         202.537         202.832    
   2      102.969         117.691         132.391         144.590         155.613         164.923         173.063         179.858         185.533         189.886    
          193.170         195.795         197.941         199.649         200.970         201.922         202.537         202.832    
   3      102.969         117.691         132.391         144.590         155.613         164.923         173.063         179.858         185.533         189.886    
          193.170         195.795         197.941         199.649         200.970         201.922         202.537         202.832    
   4      102.969         117.691         132.391         144.590         155.613         164.923         173.063         179.858         185.533         189.886    
          193.170         195.795         197.941         199.649         200.970         201.922         202.537         202.832    
   5      102.969         117.690         132.391         144.590         155.613         164.923         173.063         179.858         185.533         189.886    
          193.170         195.795         197.941         199.649         200.970         201.922         202.537         202.831    
   6      102.969         117.690         132.391         144.590         155.613         164.923         173.063         179.858         185.533         189.886    
          193.170         195.795         197.941         199.649         200.970         201.922         202.537         202.831    
   7      102.969         117.690         132.391         144.590         155.613         164.923         173.063         179.858         185.532         189.886    
          193.170         195.795         197.941         199.649         200.970         201.922         202.537         202.832    
   8      102.969         117.690         132.391         144.590         155.613         164.923         173.063         179.858         185.532         189.886    
          193.170         195.795         197.941         199.649         200.970         201.922         202.537         202.832    
   9      102.969         117.690         132.391         144.590         155.613         164.923         173.063         179.858         185.532         189.885    
          193.170         195.795         197.941         199.649         200.970         201.922         202.537         202.832    
  10      102.969         117.690         132.391         144.590         155.613         164.923         173.063         179.858         185.532         189.885    
          193.170         195.795         197.941         199.649         200.970         201.922         202.537         202.832    
  11      102.969         117.691         132.391         144.590         155.613         164.923         173.063         179.858         185.532         189.885    
          193.170         195.795         197.941         199.649         200.970         201.922         202.537         202.832    
  12      102.969         117.691         132.391         144.590         155.613         164.923         173.063         179.858         185.532         189.886    
          193.170         195.795         197.941         199.649         200.970         201.922         202.537         202.832    
  13      102.969         117.691         132.391         144.590         155.613         164.923         173.063         179.858         185.532         189.886    
          193.170         195.795         197.941         199.649         200.970         201.922         202.537         202.832    
  14      102.969         117.690         132.391         144.590         155.613         164.923         173.063         179.858         185.532         189.886    
          193.170         195.795         197.941         199.649         200.970         201.922         202.537         202.832    
  15      102.969         117.690         132.391         144.590         155.613         164.923         173.063         179.858         185.533         189.886    
          193.170         195.795         197.941         199.649         200.970         201.922         202.537         202.832    
  16      102.969         117.690         132.391         144.590         155.613         164.923         173.063         179.858         185.533         189.886    
          193.170         195.795         197.941         199.649         200.970         201.922         202.537         202.832    
  17      102.969         117.690         132.391         144.590         155.613         164.923         173.063         179.859         185.533         189.886    
          193.170         195.795         197.941         199.649         200.970         201.922         202.537         202.832    
  18      102.969         117.690         132.391         144.590         155.613         164.923         173.063         179.859         185.533         189.886    
          193.170         195.795         197.941         199.649         200.970         201.922         202.537         202.832    

 HEAD WILL BE SAVED ON UNIT 1015 AT END OF TIME STEP    1, STRESS PERIOD    1


  VOLUME BUDGET FOR ENTIRE MODEL AT END OF TIME STEP    1, STRESS PERIOD   1
  ---------------------------------------------------------------------------------------------------

     CUMULATIVE VOLUME      L**3       RATES FOR THIS TIME STEP      L**3/T          PACKAGE NAME    
     ------------------                 ------------------------                     ----------------

           IN:                                      IN:
           ---                                      ---
                 RIV =           0.0000                   RIV =           0.0000     RIV_0                            
                 GHB =       5.2885E-04                   GHB =       5.2885E-04     GHB_0                            
                 RCH =           5.4000                   RCH =           5.4000     RCH_0                            

            TOTAL IN =           5.4005              TOTAL IN =           5.4005

          OUT:                                     OUT:
          ----                                     ----
                 RIV =           5.4005                   RIV =           5.4005     RIV_0                            
                 GHB =           0.0000                   GHB =           0.0000     GHB_0                            
                 RCH =           0.0000                   RCH =           0.0000     RCH_0                            

           TOTAL OUT =           5.4005             TOTAL OUT =           5.4005

            IN - OUT =      -8.8487E-08              IN - OUT =      -8.8487E-08

 PERCENT DISCREPANCY =          -0.00     PERCENT DISCREPANCY =          -0.00




         TIME SUMMARY AT END OF TIME STEP    1 IN STRESS PERIOD    1
                    SECONDS     MINUTES      HOURS       DAYS        YEARS
                    -----------------------------------------------------------
   TIME STEP LENGTH  1.0000     1.66667E-02 2.77778E-04 1.15741E-05 3.16881E-08
 STRESS PERIOD TIME  1.0000     1.66667E-02 2.77778E-04 1.15741E-05 3.16881E-08
         TOTAL TIME  1.0000     1.66667E-02 2.77778E-04 1.15741E-05 3.16881E-08


end timestep

