                                   MODFLOW 6
                U.S. GEOLOGICAL SURVEY MODULAR HYDROLOGIC MODEL
                          GROUNDWATER FLOW MODEL (GWF)
                   VERSION 6.3.0 release candidate 03/08/2022
                               ***DEVELOP MODE***

   MODFLOW 6 compiled Mar 08 2022 20:13:10 with Intel(R) Fortran Intel(R) 64
   Compiler Classic for applications running on Intel(R) 64, Version 2021.5.0
                             Build 20211109_000000

This software is preliminary or provisional and is subject to 
revision. It is being provided to meet the need for timely best 
science. The software has not received final approval by the U.S. 
Geological Survey (USGS). No warranty, expressed or implied, is made 
by the USGS or the U.S. Government as to the functionality of the 
software and related material nor shall the fact of release 
constitute any such warranty. The software is provided on the 
condition that neither the USGS nor the U.S. Government shall be held 
liable for any damages resulting from the authorized or unauthorized 
use of the software.


As a work of the United States Government, this USGS product is 
in the public domain within the United States. You can copy, 
modify, distribute, and perform the work, even for commercial 
purposes, all without asking permission. Additionally, USGS 
waives copyright and related rights in the work worldwide 
through CC0 1.0 Universal Public Domain Dedication 
(https://creativecommons.org/publicdomain/zero/1.0/).

The following GNU Lesser General Public License (LGPL) libraries
are used in this USGS product:

    SPARSKIT version 2.0
      ilut, luson, and qsplit 
      (https://www-users.cse.umn.edu/~saad/software/SPARSKIT/)

    RCM - Reverse Cuthill McKee Ordering
      (https://people.math.sc.edu/Burkardt/f_src/rcm/rcm.html)

    BLAS - Basic Linear Algebra Subprograms Level 1
      (https://people.math.sc.edu/Burkardt/f_src/blas1_d/blas1_d.html)

    SPARSEKIT - Sparse Matrix Utility Package
      amux, dperm, dvperm, rperm, and cperm
      (https://people.sc.fsu.edu/~jburkardt/f77_src/sparsekit/sparsekit.html)

The following BSD-3 License libraries are used in this USGS product:

    Modern Fortran DAG Library
      Copyright (c) 2018, Jacob Williams
      All rights reserved.
      (https://github.com/jacobwilliams/daglib)

MODFLOW 6 compiler options: -Ilinux/obj_temp -O2 -no-heap-arrays -fpe0
-traceback -fpp -module linux/mod_temp/ -c -o linux/obj_temp/compilerversion.o

System command used to initiate simulation:
/home/hydro/PythonProjects/gwtrain/bin/mf6

MODFLOW was compiled using uniform precision.

Real Variables
  KIND: 8
  TINY (smallest non-zero value):    2.225074-308
  HUGE (largest value):    1.797693+308
  PRECISION: 15
  BIT SIZE: 64

Integer Variables
  KIND: 4
  HUGE (largest value): 2147483647
  BIT SIZE: 32

Long Integer Variables
  KIND: 8
  HUGE (largest value): 9223372036854775807
  BIT SIZE: 64

Logical Variables
  KIND: 4
  BIT SIZE: 32
 

 OPENED simple.dis
 FILE TYPE:DIS6                   UNIT 1005   STATUS:OLD                 
 FORMAT:FORMATTED              ACCESS:SEQUENTIAL          
 ACTION:READ                


 OPENED simple.npf
 FILE TYPE:NPF6                   UNIT 1006   STATUS:OLD                 
 FORMAT:FORMATTED              ACCESS:SEQUENTIAL          
 ACTION:READ                


 OPENED simple.rcha
 FILE TYPE:RCH6                   UNIT 1007   STATUS:OLD                 
 FORMAT:FORMATTED              ACCESS:SEQUENTIAL          
 ACTION:READ                


 OPENED simple.ic
 FILE TYPE:IC6                    UNIT 1008   STATUS:OLD                 
 FORMAT:FORMATTED              ACCESS:SEQUENTIAL          
 ACTION:READ                


 OPENED simple.chd
 FILE TYPE:CHD6                   UNIT 1009   STATUS:OLD                 
 FORMAT:FORMATTED              ACCESS:SEQUENTIAL          
 ACTION:READ                


 OPENED simple.riv
 FILE TYPE:RIV6                   UNIT 1010   STATUS:OLD                 
 FORMAT:FORMATTED              ACCESS:SEQUENTIAL          
 ACTION:READ                


 OPENED simple.oc
 FILE TYPE:OC6                    UNIT 1011   STATUS:OLD                 
 FORMAT:FORMATTED              ACCESS:SEQUENTIAL          
 ACTION:READ                


 DIS -- STRUCTURED GRID DISCRETIZATION PACKAGE, VERSION 2 : 3/27/2014 - INPUT READ FROM UNIT 1005


 # File generated by Flopy version 3.6.0 on 02/21/2024 at 19:49:06.
 PROCESSING DISCRETIZATION OPTIONS
    MODEL LENGTH UNIT IS METERS
 END OF DISCRETIZATION OPTIONS
 PROCESSING DISCRETIZATION DIMENSIONS
    NLAY =       1
    NROW =      50
    NCOL =      30
 END OF DISCRETIZATION DIMENSIONS
 PROCESSING GRIDDATA

                     DELR =   5.000000    

                     DELC =   5.000000    

 TOP ELEVATION OF LAYER 1 =   10.00000    

   MODEL LAYER BOTTOM EL. =   0.000000    
 END PROCESSING GRIDDATA

 NPF -- NODE PROPERTY FLOW PACKAGE, VERSION 1, 3/30/2015 INPUT READ FROM UNIT 1006


 # File generated by Flopy version 3.6.0 on 02/21/2024 at 19:49:06.
 PROCESSING NPF OPTIONS
 END OF NPF OPTIONS

 RIV   -- RIV PACKAGE, VERSION 8, 2/22/2014 INPUT READ FROM UNIT 1010
 # File generated by Flopy version 3.6.0 on 02/21/2024 at 19:49:06.

 PROCESSING RIV OPTIONS
 END OF RIV OPTIONS

 PROCESSING RIV DIMENSIONS
    MAXBOUND =      50
 END OF RIV DIMENSIONS

 RCH   -- RCH PACKAGE, VERSION 8, 2/22/2014 INPUT READ FROM UNIT 1007
 # File generated by Flopy version 3.6.0 on 02/21/2024 at 19:49:06.

 PROCESSING RCH OPTIONS
    RECHARGE INPUT WILL BE READ AS ARRAY(S).
 END OF RCHA OPTIONS

 CHD   -- CHD PACKAGE, VERSION 8, 2/22/2014 INPUT READ FROM UNIT 1009
 # File generated by Flopy version 3.6.0 on 02/21/2024 at 19:49:06.

 PROCESSING CHD OPTIONS
 END OF CHD OPTIONS

 PROCESSING CHD DIMENSIONS
    MAXBOUND =      50
 END OF CHD DIMENSIONS

 IC -- INITIAL CONDITIONS PACKAGE, VERSION 8, 3/28/2015 INPUT READ FROM UNIT 1008
 # File generated by Flopy version 3.6.0 on 02/21/2024 at 19:49:06.
 PROCESSING GRIDDATA

     INITIAL HEAD =   10.00000    
 END PROCESSING GRIDDATA
 PROCESSING GRIDDATA

                ICELLTYPE = 0
 K33 not provided.  Assuming K33 = K.
 K22 not provided.  Assuming K22 = K.
 END PROCESSING GRIDDATA
    BINARY GRID INFORMATION WILL BE WRITTEN TO:
      UNIT NUMBER: 1013
      FILE NAME: /home/hydro/PythonProjects/gwtrain/problems/simple_00/simple.dis.grb

 OPENED /home/hydro/PythonProjects/gwtrain/problems/simple_00/simple.dis.grb
 FILE TYPE:DATA(BINARY)   UNIT 1013   STATUS:REPLACE             
 FORMAT:UNFORMATTED            ACCESS:STREAM              
 ACTION:READWRITE           

      THE LAST TIME STEP WILL BE PRINTED
      THE LAST TIME STEP WILL BE PRINTED
 # File generated by Flopy version 3.6.0 on 02/21/2024 at 19:49:06.

 PROCESSING OC OPTIONS

    BUDGET INFORMATION WILL BE WRITTEN TO:
      UNIT NUMBER: 1014
      FILE NAME: simple.cbb

 OPENED simple.cbb
 FILE TYPE:DATA(BINARY)   UNIT 1014   STATUS:REPLACE             
 FORMAT:UNFORMATTED            ACCESS:STREAM              
 ACTION:READWRITE           

    HEAD INFORMATION WILL BE WRITTEN TO:
      UNIT NUMBER: 1015
      FILE NAME: simple.hds

 OPENED simple.hds
 FILE TYPE:DATA(BINARY)   UNIT 1015   STATUS:REPLACE             
 FORMAT:UNFORMATTED            ACCESS:STREAM              
 ACTION:READWRITE           

 END OF OC OPTIONS

start timestep kper="1" kstp="1" mode="normal"


 BEGIN READING OUTPUT CONTROL FOR STRESS PERIOD 1
      ALL TIME STEPS WILL BE SAVED
      ALL TIME STEPS WILL BE SAVED
      ALL TIME STEPS WILL BE PRINTED
      ALL TIME STEPS WILL BE PRINTED

 END READING OUTPUT CONTROL FOR STRESS PERIOD 1

                 RECHARGE =  0.7000000E-03
1
  HEAD IN LAYER   1 AT END OF TIME STEP   1 IN STRESS PERIOD    1
  ---------------------------------------------------------------------------

                1               2               3               4               5               6               7               8               9              10
               11              12              13              14              15              16              17              18              19              20
               21              22              23              24              25              26              27              28              29              30
 ................................................................................................................................................................
   1      10.0000         10.0140         10.0276         10.0407         10.0533         10.0655         10.0772         10.0884         10.0992         10.1094    
          10.1191         10.1283         10.1370         10.1452         10.1528         10.1599         10.1664         10.1724         10.1779         10.1828    
          10.1871         10.1909         10.1942         10.1968         10.1989         10.2005         10.2015         10.2019         10.2017         10.2010    
   2      10.0000         10.0140         10.0276         10.0407         10.0534         10.0656         10.0773         10.0885         10.0992         10.1095    
          10.1192         10.1284         10.1371         10.1452         10.1529         10.1600         10.1665         10.1725         10.1780         10.1829    
          10.1873         10.1911         10.1943         10.1970         10.1991         10.2006         10.2016         10.2020         10.2018         10.2011    
   3      10.0000         10.0140         10.0276         10.0408         10.0534         10.0657         10.0774         10.0886         10.0994         10.1096    
          10.1193         10.1286         10.1373         10.1454         10.1531         10.1602         10.1667         10.1728         10.1782         10.1831    
          10.1875         10.1913         10.1945         10.1972         10.1993         10.2009         10.2018         10.2023         10.2021         10.2014    
   4      10.0000         10.0141         10.0277         10.0408         10.0535         10.0658         10.0775         10.0888         10.0996         10.1098    
          10.1196         10.1288         10.1375         10.1457         10.1534         10.1605         10.1671         10.1731         10.1786         10.1835    
          10.1879         10.1917         10.1949         10.1976         10.1997         10.2013         10.2022         10.2026         10.2025         10.2018    
   5      10.0000         10.0141         10.0277         10.0409         10.0537         10.0659         10.0777         10.0890         10.0998         10.1101    
          10.1199         10.1291         10.1379         10.1461         10.1538         10.1609         10.1675         10.1735         10.1790         10.1840    
          10.1883         10.1922         10.1954         10.1981         10.2002         10.2018         10.2028         10.2032         10.2030         10.2023    
   6      10.0000         10.0141         10.0278         10.0411         10.0538         10.0661         10.0780         10.0893         10.1001         10.1105    
          10.1203         10.1296         10.1383         10.1466         10.1543         10.1614         10.1680         10.1741         10.1796         10.1846    
          10.1890         10.1928         10.1960         10.1987         10.2009         10.2024         10.2034         10.2038         10.2037         10.2029    
   7      10.0000         10.0142         10.0279         10.0412         10.0541         10.0664         10.0783         10.0896         10.1005         10.1109    
          10.1207         10.1301         10.1389         10.1471         10.1549         10.1621         10.1687         10.1748         10.1803         10.1853    
          10.1897         10.1935         10.1968         10.1995         10.2016         10.2032         10.2042         10.2046         10.2045         10.2037    
   8      10.0000         10.0143         10.0281         10.0414         10.0543         10.0667         10.0786         10.0900         10.1010         10.1114    
          10.1213         10.1307         10.1395         10.1478         10.1556         10.1628         10.1695         10.1756         10.1811         10.1861    
          10.1905         10.1944         10.1977         10.2004         10.2026         10.2041         10.2051         10.2056         10.2054         10.2047    
   9      10.0000         10.0143         10.0282         10.0416         10.0546         10.0670         10.0790         10.0905         10.1015         10.1120    
          10.1219         10.1314         10.1402         10.1486         10.1564         10.1637         10.1704         10.1765         10.1821         10.1871    
          10.1915         10.1954         10.1987         10.2014         10.2036         10.2052         10.2062         10.2066         10.2065         10.2057    
  10      10.0000         10.0144         10.0284         10.0419         10.0549         10.0674         10.0795         10.0911         10.1021         10.1126    
          10.1227         10.1321         10.1411         10.1495         10.1573         10.1646         10.1714         10.1775         10.1832         10.1882    
          10.1927         10.1966         10.1999         10.2026         10.2048         10.2064         10.2074         10.2078         10.2077         10.2070    
  11      10.0000         10.0145         10.0285         10.0421         10.0553         10.0679         10.0800         10.0917         10.1028         10.1134    
          10.1235         10.1330         10.1420         10.1505         10.1584         10.1657         10.1725         10.1787         10.1844         10.1894    
          10.1939         10.1978         10.2012         10.2039         10.2061         10.2077         10.2087         10.2092         10.2090         10.2083    
  12      10.0000         10.0146         10.0288         10.0424         10.0557         10.0684         10.0806         10.0924         10.1036         10.1143    
          10.1244         10.1340         10.1431         10.1516         10.1596         10.1669         10.1738         10.1800         10.1857         10.1908    
          10.1953         10.1993         10.2026         10.2054         10.2076         10.2092         10.2102         10.2107         10.2105         10.2098    
  13      10.0000         10.0147         10.0290         10.0428         10.0561         10.0689         10.0813         10.0931         10.1044         10.1152    
          10.1254         10.1351         10.1443         10.1528         10.1609         10.1683         10.1752         10.1815         10.1872         10.1923    
          10.1969         10.2008         10.2042         10.2070         10.2092         10.2108         10.2118         10.2123         10.2122         10.2114    
  14      10.0000         10.0148         10.0292         10.0432         10.0566         10.0696         10.0820         10.0940         10.1054         10.1162    
          10.1266         10.1363         10.1456         10.1542         10.1623         10.1698         10.1767         10.1831         10.1888         10.1940    
          10.1985         10.2025         10.2059         10.2087         10.2110         10.2126         10.2136         10.2141         10.2139         10.2132    
  15      10.0000         10.0150         10.0295         10.0436         10.0572         10.0703         10.0828         10.0949         10.1064         10.1174    
          10.1278         10.1377         10.1470         10.1557         10.1639         10.1714         10.1784         10.1848         10.1906         10.1958    
          10.2004         10.2044         10.2078         10.2106         10.2129         10.2145         10.2156         10.2160         10.2159         10.2152    
  16      10.0000         10.0151         10.0298         10.0441         10.0578         10.0710         10.0837         10.0959         10.1076         10.1187    
          10.1292         10.1391         10.1485         10.1573         10.1656         10.1732         10.1802         10.1867         10.1925         10.1978    
          10.2024         10.2064         10.2099         10.2127         10.2149         10.2166         10.2176         10.2181         10.2180         10.2172    
  17      10.0000         10.0153         10.0302         10.0446         10.0585         10.0719         10.0847         10.0971         10.1088         10.1200    
          10.1307         10.1408         10.1502         10.1591         10.1674         10.1751         10.1822         10.1887         10.1946         10.1999    
          10.2046         10.2086         10.2121         10.2149         10.2172         10.2188         10.2199         10.2203         10.2202         10.2195    
  18      10.0000         10.0155         10.0306         10.0452         10.0592         10.0728         10.0858         10.0983         10.1102         10.1216    
          10.1323         10.1425         10.1521         10.1611         10.1695         10.1772         10.1844         10.1909         10.1969         10.2022    
          10.2069         10.2110         10.2144         10.2173         10.2196         10.2212         10.2222         10.2227         10.2226         10.2218    
  19      10.0000         10.0157         10.0310         10.0458         10.0601         10.0738         10.0870         10.0997         10.1117         10.1232    
          10.1341         10.1444         10.1541         10.1632         10.1717         10.1795         10.1867         10.1933         10.1993         10.2047    
          10.2094         10.2135         10.2170         10.2199         10.2221         10.2238         10.2248         10.2252         10.2251         10.2244    
  20      10.0000         10.0160         10.0315         10.0465         10.0610         10.0750         10.0883         10.1012         10.1134         10.1250    
          10.1361         10.1465         10.1563         10.1655         10.1740         10.1820         10.1893         10.1959         10.2019         10.2073    
          10.2121         10.2162         10.2197         10.2226         10.2248         10.2265         10.2275         10.2279         10.2278         10.2270    
  21      10.0000         10.0163         10.0320         10.0473         10.0620         10.0762         10.0898         10.1028         10.1152         10.1270    
          10.1382         10.1488         10.1587         10.1680         10.1766         10.1846         10.1920         10.1987         10.2048         10.2102    
          10.2150         10.2191         10.2226         10.2255         10.2277         10.2294         10.2304         10.2308         10.2306         10.2298    
  22      10.0000         10.0166         10.0326         10.0482         10.0632         10.0776         10.0914         10.1046         10.1172         10.1292    
          10.1405         10.1512         10.1612         10.1706         10.1794         10.1875         10.1949         10.2017         10.2078         10.2133    
          10.2181         10.2222         10.2257         10.2286         10.2308         10.2324         10.2334         10.2337         10.2335         10.2328    
  23      10.0000         10.0169         10.0333         10.0492         10.0645         10.0792         10.0932         10.1066         10.1194         10.1316    
          10.1430         10.1539         10.1640         10.1735         10.1824         10.1905         10.1981         10.2049         10.2111         10.2166    
          10.2214         10.2256         10.2291         10.2319         10.2341         10.2357         10.2366         10.2369         10.2366         10.2358    
  24      10.0000         10.0173         10.0341         10.0503         10.0659         10.0809         10.0952         10.1088         10.1218         10.1341    
          10.1458         10.1567         10.1670         10.1767         10.1856         10.1939         10.2014         10.2083         10.2145         10.2201    
          10.2249         10.2291         10.2326         10.2354         10.2376         10.2391         10.2399         10.2401         10.2398         10.2388    
  25      10.0000         10.0178         10.0351         10.0517         10.0676         10.0828         10.0974         10.1113         10.1245         10.1369    
          10.1488         10.1599         10.1703         10.1800         10.1891         10.1974         10.2051         10.2120         10.2183         10.2238    
          10.2287         10.2329         10.2364         10.2392         10.2413         10.2427         10.2435         10.2436         10.2430         10.2419    
  26      10.0000         10.0195         10.0380         10.0556         10.0723         10.0883         10.1035         10.1180         10.1317         10.1446    
          10.1568         10.1683         10.1790         10.1891         10.1983         10.2069         10.2147         10.2218         10.2282         10.2339    
          10.2388         10.2430         10.2465         10.2492         10.2512         10.2525         10.2530         10.2526         10.2514         10.2489    
  27      10.0000         10.0216         10.0418         10.0609         10.0790         10.0961         10.1123         10.1277         10.1422         10.1559    
          10.1687         10.1808         10.1920         10.2025         10.2122         10.2211         10.2292         10.2366         10.2431         10.2489    
          10.2539         10.2582         10.2616         10.2643         10.2661         10.2671         10.2672         10.2664         10.2644         10.2610    
  28      10.0000         10.0233         10.0451         10.0655         10.0848         10.1030         10.1203         10.1365         10.1518         10.1662    
          10.1797         10.1923         10.2041         10.2150         10.2251         10.2343         10.2427         10.2503         10.2571         10.2630    
          10.2681         10.2724         10.2758         10.2784         10.2801         10.2808         10.2807         10.2794         10.2770         10.2733    
  29      10.0000         10.0247         10.0478         10.0696         10.0900         10.1093         10.1274         10.1445         10.1605         10.1756    
          10.1897         10.2029         10.2152         10.2266         10.2370         10.2466         10.2553         10.2631         10.2701         10.2762    
          10.2814         10.2857         10.2891         10.2916         10.2932         10.2938         10.2934         10.2919         10.2892         10.2853    
  30      10.0000         10.0259         10.0503         10.0731         10.0946         10.1148         10.1339         10.1517         10.1685         10.1843    
          10.1990         10.2127         10.2255         10.2373         10.2481         10.2580         10.2670         10.2751         10.2822         10.2884    
          10.2937         10.2981         10.3015         10.3040         10.3055         10.3060         10.3055         10.3038         10.3010         10.2970    
  31      10.0000         10.0270         10.0524         10.0763         10.0987         10.1198         10.1397         10.1583         10.1758         10.1922    
          10.2075         10.2218         10.2350         10.2472         10.2584         10.2686         10.2779         10.2862         10.2935         10.2999    
          10.3053         10.3097         10.3132         10.3157         10.3171         10.3175         10.3169         10.3151         10.3122         10.3081    
  32      10.0000         10.0280         10.0543         10.0791         10.1024         10.1244         10.1450         10.1644         10.1825         10.1995    
          10.2153         10.2301         10.2437         10.2563         10.2679         10.2785         10.2880         10.2965         10.3040         10.3106    
          10.3161         10.3206         10.3241         10.3266         10.3280         10.3284         10.3277         10.3258         10.3229         10.3187    
  33      10.0000         10.0289         10.0561         10.0817         10.1058         10.1285         10.1498         10.1698         10.1886         10.2061    
          10.2225         10.2377         10.2518         10.2648         10.2767         10.2876         10.2973         10.3061         10.3138         10.3205    
          10.3261         10.3307         10.3343         10.3368         10.3382         10.3386         10.3378         10.3359         10.3329         10.3288    
  34      10.0000         10.0296         10.0576         10.0840         10.1088         10.1322         10.1542         10.1748         10.1941         10.2122    
          10.2291         10.2447         10.2592         10.2726         10.2848         10.2959         10.3060         10.3150         10.3228         10.3297    
          10.3354         10.3401         10.3437         10.3463         10.3477         10.3481         10.3473         10.3454         10.3424         10.3382    
  35      10.0000         10.0303         10.0590         10.0861         10.1116         10.1356         10.1581         10.1793         10.1992         10.2178    
          10.2351         10.2511         10.2660         10.2797         10.2923         10.3037         10.3140         10.3231         10.3312         10.3382    
          10.3441         10.3489         10.3525         10.3551         10.3566         10.3570         10.3562         10.3543         10.3513         10.3471    
  36      10.0000         10.0310         10.0603         10.0879         10.1140         10.1386         10.1617         10.1834         10.2038         10.2228    
          10.2405         10.2570         10.2722         10.2863         10.2991         10.3108         10.3213         10.3307         10.3389         10.3461    
          10.3521         10.3569         10.3607         10.3633         10.3649         10.3653         10.3645         10.3626         10.3596         10.3554    
  37      10.0000         10.0315         10.0614         10.0896         10.1163         10.1414         10.1650         10.1872         10.2080         10.2274    
          10.2455         10.2624         10.2779         10.2923         10.3054         10.3173         10.3280         10.3376         10.3460         10.3533    
          10.3594         10.3644         10.3682         10.3709         10.3725         10.3729         10.3722         10.3703         10.3673         10.3631    
  38      10.0000         10.0321         10.0624         10.0912         10.1183         10.1439         10.1679         10.1906         10.2118         10.2316    
          10.2501         10.2672         10.2831         10.2977         10.3111         10.3232         10.3342         10.3439         10.3525         10.3599    
          10.3661         10.3712         10.3751         10.3779         10.3795         10.3800         10.3793         10.3774         10.3743         10.3701    
  39      10.0000         10.0325         10.0634         10.0925         10.1201         10.1461         10.1706         10.1936         10.2152         10.2354    
          10.2542         10.2716         10.2878         10.3027         10.3163         10.3286         10.3398         10.3497         10.3584         10.3659    
          10.3723         10.3775         10.3815         10.3843         10.3859         10.3864         10.3857         10.3839         10.3809         10.3767    
  40      10.0000         10.0329         10.0642         10.0938         10.1217         10.1481         10.1730         10.1963         10.2182         10.2387    
          10.2578         10.2756         10.2920         10.3071         10.3210         10.3335         10.3448         10.3549         10.3638         10.3714    
          10.3779         10.3831         10.3872         10.3901         10.3918         10.3923         10.3917         10.3898         10.3868         10.3826    
  41      10.0000         10.0333         10.0649         10.0948         10.1232         10.1499         10.1751         10.1988         10.2210         10.2418    
          10.2611         10.2791         10.2958         10.3111         10.3251         10.3379         10.3494         10.3596         10.3686         10.3763    
          10.3829         10.3882         10.3924         10.3953         10.3971         10.3976         10.3970         10.3952         10.3922         10.3880    
  42      10.0000         10.0336         10.0656         10.0958         10.1244         10.1515         10.1770         10.2009         10.2234         10.2444    
          10.2641         10.2823         10.2991         10.3147         10.3289         10.3418         10.3534         10.3638         10.3729         10.3807    
          10.3874         10.3928         10.3970         10.4000         10.4018         10.4024         10.4018         10.4000         10.3970         10.3928    
  43      10.0000         10.0339         10.0661         10.0966         10.1255         10.1528         10.1786         10.2028         10.2255         10.2468    
          10.2666         10.2850         10.3021         10.3178         10.3321         10.3452         10.3570         10.3674         10.3766         10.3846    
          10.3913         10.3968         10.4011         10.4041         10.4060         10.4066         10.4060         10.4042         10.4012         10.3970    
  44      10.0000         10.0342         10.0666         10.0974         10.1265         10.1540         10.1800         10.2044         10.2274         10.2488    
          10.2688         10.2874         10.3046         10.3205         10.3350         10.3482         10.3600         10.3706         10.3799         10.3880    
          10.3948         10.4003         10.4046         10.4077         10.4096         10.4102         10.4097         10.4079         10.4049         10.4007    
  45      10.0000         10.0344         10.0670         10.0980         10.1273         10.1550         10.1812         10.2058         10.2289         10.2505    
          10.2707         10.2895         10.3068         10.3228         10.3374         10.3507         10.3627         10.3733         10.3827         10.3908    
          10.3977         10.4033         10.4077         10.4108         10.4127         10.4134         10.4128         10.4111         10.4081         10.4039    
  46      10.0000         10.0345         10.0674         10.0985         10.1280         10.1559         10.1822         10.2069         10.2302         10.2520    
          10.2723         10.2911         10.3086         10.3247         10.3394         10.3528         10.3648         10.3756         10.3850         10.3932    
          10.4001         10.4058         10.4102         10.4133         10.4153         10.4159         10.4154         10.4137         10.4107         10.4065    
  47      10.0000         10.0347         10.0676         10.0989         10.1285         10.1565         10.1830         10.2078         10.2312         10.2531    
          10.2735         10.2925         10.3100         10.3262         10.3410         10.3544         10.3665         10.3774         10.3869         10.3951    
          10.4020         10.4077         10.4122         10.4153         10.4173         10.4180         10.4175         10.4158         10.4128         10.4086    
  48      10.0000         10.0348         10.0678         10.0992         10.1289         10.1570         10.1836         10.2085         10.2320         10.2539    
          10.2744         10.2934         10.3111         10.3273         10.3422         10.3557         10.3678         10.3787         10.3882         10.3965    
          10.4035         10.4092         10.4137         10.4169         10.4188         10.4196         10.4191         10.4173         10.4144         10.4102    
  49      10.0000         10.0348         10.0680         10.0994         10.1292         10.1574         10.1839         10.2090         10.2325         10.2545    
          10.2750         10.2941         10.3118         10.3280         10.3429         10.3565         10.3687         10.3796         10.3892         10.3974    
          10.4044         10.4102         10.4147         10.4179         10.4199         10.4206         10.4201         10.4184         10.4154         10.4112    
  50      10.0000         10.0349         10.0680         10.0995         10.1293         10.1575         10.1841         10.2092         10.2327         10.2548    
          10.2753         10.2944         10.3121         10.3284         10.3433         10.3569         10.3691         10.3800         10.3896         10.3979    
          10.4049         10.4107         10.4151         10.4184         10.4204         10.4211         10.4206         10.4189         10.4159         10.4118    

 HEAD WILL BE SAVED ON UNIT 1015 AT END OF TIME STEP    1, STRESS PERIOD    1


  VOLUME BUDGET FOR ENTIRE MODEL AT END OF TIME STEP    1, STRESS PERIOD   1
  ---------------------------------------------------------------------------------------------------

     CUMULATIVE VOLUME      L**3       RATES FOR THIS TIME STEP      L**3/T          PACKAGE NAME    
     ------------------                 ------------------------                     ----------------

           IN:                                      IN:
           ---                                      ---
                 RIV =           0.0000                   RIV =           0.0000     RIV_0                            
                RCHA =          25.3750                  RCHA =          25.3750     RCHA_0                           
                 CHD =           0.0000                   CHD =           0.0000     CHD_0                            

            TOTAL IN =          25.3750              TOTAL IN =          25.3750

          OUT:                                     OUT:
          ----                                     ----
                 RIV =           2.6426                   RIV =           2.6426     RIV_0                            
                RCHA =           0.0000                  RCHA =           0.0000     RCHA_0                           
                 CHD =          22.7324                   CHD =          22.7324     CHD_0                            

           TOTAL OUT =          25.3750             TOTAL OUT =          25.3750

            IN - OUT =       4.0318E-06              IN - OUT =       4.0318E-06

 PERCENT DISCREPANCY =           0.00     PERCENT DISCREPANCY =           0.00




         TIME SUMMARY AT END OF TIME STEP    1 IN STRESS PERIOD    1
                    SECONDS     MINUTES      HOURS       DAYS        YEARS
                    -----------------------------------------------------------
   TIME STEP LENGTH  86400.      1440.0      24.000      1.0000     2.73785E-03
 STRESS PERIOD TIME  86400.      1440.0      24.000      1.0000     2.73785E-03
         TOTAL TIME  86400.      1440.0      24.000      1.0000     2.73785E-03


end timestep

